22

C     -0.175940    2.580720    0.171490
C      1.022050    1.768900   -0.295800
N      2.072050    1.799720    0.730150
H     -0.551230    2.181950    1.128960
H     -0.990230    2.536910   -0.571220
H      0.110350    3.635820    0.317850
H      0.722380    0.711540   -0.428600
H      1.360240    2.148910   -1.278990
H      2.402920    2.762910    0.854510
O     -1.026240    1.063520    2.540790
C     -0.681200    1.716290    3.757540
C      0.700270    2.359080    3.721350
C      1.830500    1.341550    3.670310
O      1.778720    0.501560    2.504720
H     -0.268210    0.482210    2.321990
H     -1.456680    2.489910    3.917500
H     -0.731220    1.008810    4.607500
H      0.763120    3.037950    2.849200
H      0.834440    2.970660    4.634260
H      2.815510    1.842520    3.735380
H      1.750820    0.643400    4.525700
H      1.988160    1.061770    1.728380
