27

C      2.320940    3.727180    1.101970
C      3.165020    3.365230    2.325820
C      3.875500    2.025070    2.124590
C      4.730020    2.043000    0.855420
C      3.885930    2.404950   -0.368440
C      3.175450    3.745110   -0.167200
H      1.836940    4.711710    1.249960
H      1.519630    2.972620    0.983640
H      3.925820    4.154020    2.482180
H      2.528460    3.327490    3.230700
H      3.114450    1.226440    2.032740
H      4.504620    1.790830    3.004810
H      5.214040    1.058490    0.707420
H      5.531290    2.797590    0.973750
H      3.125150    1.616150   -0.524840
H      4.522520    2.442720   -1.273310
H      2.546350    3.979380   -1.047430
H      3.936520    4.543720   -0.075320
N     -2.183570    2.328010    0.224100
C     -1.547640    2.290090   -0.955250
C     -0.641150    1.282070   -1.281620
N     -0.345030    0.283550   -0.437830
C     -0.980910    0.321390    0.741550
C     -1.887500    1.329530    1.067950
H     -1.771200    3.096180   -1.666490
H     -0.757430   -0.484650    1.452850
H     -2.394070    1.335310    2.042090
