17

C      0.242610    0.572470    2.388100
S      1.487490    1.873240    2.382530
C      0.378990    3.289420    2.468670
H      0.763000   -0.398760    2.338000
H     -0.431660    0.655560    1.519150
H     -0.364700    0.599140    3.308470
H     -0.297630    3.325710    1.598340
H     -0.230670    3.269290    3.387650
H      0.994080    4.204960    2.474520
C      4.039460    1.798660    0.589070
N      2.607530    1.883280    0.161790
H      2.438950    2.752350   -0.384000
H      2.354400    1.069270   -0.433950
H      1.978110    1.890330    0.989670
H      4.702570    1.791510   -0.292320
H      4.212900    0.875530    1.167320
H      4.302740    2.663950    1.220400
