22

C      0.787820    3.015730   -1.159650
C      1.985810    2.203920   -1.626940
N      3.035800    2.234730   -0.600990
H      0.412520    2.616960   -0.202180
H     -0.026470    2.971920   -1.902360
H      1.074110    4.070830   -1.013290
H      1.686140    1.146560   -1.759740
H      2.324000    2.583930   -2.610130
H      3.850280    1.691480   -0.907880
H      3.366680    3.197920   -0.476630
O     -1.026240    1.063520    2.540790
C     -0.681200    1.716290    3.757540
C      0.700270    2.359080    3.721350
C      1.830500    1.341550    3.670310
O      1.778720    0.501560    2.504720
H     -0.268210    0.482210    2.321990
H     -1.456680    2.489910    3.917500
H     -0.731220    1.008810    4.607500
H      0.763120    3.037950    2.849200
H      0.834440    2.970660    4.634260
H      2.815510    1.842520    3.735380
H      1.750820    0.643400    4.525700
