22

C      4.067060    2.711910    0.202950
C      3.275730    1.651100   -0.504880
C      2.681690    0.614390    0.096130
C      1.890360   -0.446420   -0.611700
H      4.087360    2.512760    1.287630
H      3.614960    3.704020    0.035820
H      5.104640    2.730630   -0.170790
H      3.184260    1.742560   -1.595230
H      2.773150    0.522930    1.186490
H      2.342460   -1.438530   -0.444560
H      0.852780   -0.465140   -0.237950
H      1.870050   -0.247260   -1.696380
C      0.263120    4.410850    2.254860
S      1.281060    2.954410    1.931810
S     -0.076070    1.644890    1.158430
C     -0.101350    2.109430   -0.586660
H      0.913370    5.172190    2.717630
H     -0.560120    4.180600    2.951890
H     -0.166300    4.830360    1.329540
H     -0.460310    3.141640   -0.736000
H      0.898210    2.015020   -1.043360
H     -0.790290    1.419330   -1.102160
