20

C     -1.786000    0.639600    3.312730
C     -0.852800   -0.546960    3.385310
O     -0.309250   -0.877470    4.426520
C     -0.631520   -1.300640    2.094160
H     -1.883460    1.113820    4.303800
H     -2.786420    0.319810    2.975830
H     -1.397730    1.387800    2.601350
H     -1.587100   -1.703850    1.718790
H     -0.207080   -0.630600    1.327670
H      0.066260   -2.139940    2.253140
C      3.310580    0.757690    2.054970
C      3.738540    0.239820    0.835440
C      3.239040    0.807060   -0.333900
C      2.335940    1.864400   -0.233140
N      1.914150    2.374300    0.934190
C      2.404380    1.817160    2.052140
H      3.673420    0.347100    3.006480
H      4.451500   -0.594320    0.796840
H      1.924870    2.332050   -1.137530
H      2.048710    2.246570    2.998040
