23

C      3.533160    1.274490    1.730220
C      3.942660    2.725860    1.969210
C      3.934410    3.549450    0.696020
O      2.607690    3.601260    0.193940
C      2.542730    4.342370   -1.005370
H      2.514030    1.232380    1.310420
H      3.548380    0.705080    2.674750
H      4.226660    0.794930    1.019100
H      3.255520    3.201240    2.695370
H      4.963850    2.768720    2.394390
H      4.298870    4.576550    0.890100
H      4.600390    3.093550   -0.061660
H      2.870490    5.384990   -0.856590
H      3.162540    3.888260   -1.796710
H      1.492150    4.348390   -1.341320
C     -0.879300    3.719030    3.459800
N     -1.901040    3.176400    4.102830
C     -2.139900    1.985790    3.459080
C     -1.254700    1.807530    2.418010
N     -0.457780    2.925040    2.434730
H      0.313590    3.126150    1.793590
H     -0.409610    4.674940    3.691570
H     -2.938330    1.315730    3.777900
