27

C      2.320940    3.727180    1.101970
C      3.165020    3.365230    2.325820
C      3.875500    2.025070    2.124590
C      4.730020    2.043000    0.855420
C      3.885930    2.404950   -0.368440
C      3.175450    3.745110   -0.167200
H      1.836940    4.711710    1.249960
H      3.925820    4.154020    2.482180
H      2.528460    3.327490    3.230700
H      3.114450    1.226440    2.032740
H      4.504620    1.790830    3.004810
H      5.214040    1.058490    0.707420
H      5.531290    2.797590    0.973750
H      3.125150    1.616150   -0.524840
H      4.522520    2.442720   -1.273310
H      2.546350    3.979380   -1.047430
H      3.936520    4.543720   -0.075320
N     -0.702470    2.896180    0.432780
C     -0.066550    2.858260   -0.746570
C      0.839940    1.850240   -1.072940
N      1.136060    0.851720   -0.229150
C      0.500180    0.889560    0.950230
C     -0.406410    1.897700    1.276630
H     -0.290100    3.664350   -1.457810
H      1.346560    1.844380   -2.047060
H      0.723660    0.083520    1.661530
H     -0.912980    1.903480    2.250770
