25

C     -1.119680    1.743270    1.284610
O     -0.236420    1.824000    0.158600
P      0.756110    0.611700   -0.094120
O      1.440410    0.078740    1.096520
O     -0.160050   -0.413370   -0.886920
C      0.353800   -1.731350   -1.118000
O      1.695560    1.179420   -1.240340
C      2.802410    2.003580   -0.852780
H     -0.577450    1.497830    2.213240
H     -1.906940    0.987060    1.126550
H     -1.598520    2.729350    1.406960
H      1.172860   -1.721390   -1.856680
H      0.724200   -2.194950   -0.188220
H     -0.470170   -2.348100   -1.514620
H      2.464340    2.988680   -0.489620
H      3.410630    1.528000   -0.065060
H      3.435830    2.155200   -1.742940
C      2.237470    4.010430    3.269190
N      2.725810    4.898980    4.120020
C      3.524020    4.177390    4.975110
C      3.517900    2.841180    4.637930
N      2.690550    2.754680    3.546050
H      1.558680    4.219160    2.442290
H      4.063830    4.656790    5.791740
H      4.013430    1.968920    5.064200
