23

C      3.533160    1.274490    1.730220
C      3.942660    2.725860    1.969210
C      3.934410    3.549450    0.696020
O      2.607690    3.601260    0.193940
C      2.542730    4.342370   -1.005370
H      2.514030    1.232380    1.310420
H      3.548380    0.705080    2.674750
H      4.226660    0.794930    1.019100
H      3.255520    3.201240    2.695370
H      4.963850    2.768720    2.394390
H      4.298870    4.576550    0.890100
H      4.600390    3.093550   -0.061660
H      2.870490    5.384990   -0.856590
H      3.162540    3.888260   -1.796710
H      1.492150    4.348390   -1.341320
C     -0.129010    3.874360    2.987630
N     -1.150760    3.331730    3.630660
C     -1.389620    2.141120    2.986910
C     -0.504420    1.962860    1.945840
N      0.292500    3.080370    1.962560
H      1.063880    3.281480    1.321420
H      0.340670    4.830270    3.219400
H     -2.188040    1.471060    3.305730
