24

C     -1.320700    2.885290    1.186350
N     -0.030690    3.493990    1.446220
C      0.967670    3.439400    0.521400
O      0.812840    2.876720   -0.558470
C      2.259220    4.117030    0.927630
H     -1.976130    3.045090    2.058980
H     -1.218340    1.800140    1.017270
H     -1.798560    3.335890    0.300230
H      0.137350    3.972320    2.334750
H      2.678880    3.655420    1.837260
H      2.991740    4.011880    0.109720
C      2.117430   -1.235480    2.416520
S      1.483880    0.255970    1.634270
C      1.439630   -0.326750   -0.075750
S      3.031450   -0.708040   -0.841520
C      3.735030    0.948040   -0.852060
H      2.252760   -1.025690    3.490890
H      3.091670   -1.527420    1.989620
H      1.418270   -2.081740    2.308660
H      0.834260   -1.251080   -0.143440
H      0.920220    0.459100   -0.657210
H      3.150140    1.636200   -1.485270
H      3.787180    1.366340    0.167210
H      4.758570    0.880920   -1.257600
