16

C      0.242610    0.572470    2.388100
S      1.487490    1.873240    2.382530
C      0.378990    3.289420    2.468670
H      0.763000   -0.398760    2.338000
H     -0.431660    0.655560    1.519150
H     -0.364700    0.599140    3.308470
H     -0.297630    3.325710    1.598340
H     -0.230670    3.269290    3.387650
H      0.994080    4.204960    2.474520
C      4.453170    1.794730    0.024420
N      3.021230    1.879340   -0.402860
H      2.852650    2.748420   -0.948650
H      2.768100    1.065330   -0.998600
H      5.116280    1.787570   -0.856970
H      4.626600    0.871600    0.602660
H      4.716450    2.660020    0.655740
