27

C      2.320940    3.727180    1.101970
C      3.165020    3.365230    2.325820
C      3.875500    2.025070    2.124590
C      4.730020    2.043000    0.855420
C      3.885930    2.404950   -0.368440
C      3.175450    3.745110   -0.167200
H      1.836940    4.711710    1.249960
H      1.519630    2.972620    0.983640
H      3.925820    4.154020    2.482180
H      2.528460    3.327490    3.230700
H      3.114450    1.226440    2.032740
H      4.504620    1.790830    3.004810
H      5.214040    1.058490    0.707420
H      5.531290    2.797590    0.973750
H      3.125150    1.616150   -0.524840
H      4.522520    2.442720   -1.273310
H      2.546350    3.979380   -1.047430
H      3.936520    4.543720   -0.075320
N     -0.887610    2.825160    0.406700
C     -0.251690    2.787240   -0.772660
C      0.654800    1.779220   -1.099020
N      0.950920    0.780700   -0.255230
C      0.315040    0.818540    0.924140
C     -0.591550    1.826670    1.250540
H     -0.475240    3.593330   -1.483890
H      0.538530    0.012500    1.635450
H     -1.098120    1.832450    2.224690
