21

C      0.576400   -0.248720   -0.212460
C      0.990010   -0.798970    1.140980
O      0.942650    0.187740    2.172860
H     -0.438290    0.179830   -0.154420
H      0.576270   -1.052170   -0.968160
H      1.273740    0.541090   -0.538810
H      0.287170   -1.589060    1.468420
H      1.564960    0.903590    1.926540
C      3.759140    2.811080    1.994960
O      2.540970    2.391860    1.397810
C      1.740630    3.475970    1.018200
O      1.264730    4.237310    2.092370
C      0.361660    3.504600    2.907160
H      4.354460    1.906380    2.204100
H      3.593710    3.350280    2.942860
H      4.335080    3.462000    1.315840
H      2.293810    4.179100    0.366250
H      0.909430    3.049430    0.424380
H     -0.496560    3.134520    2.321410
H      0.848420    2.645730    3.399100
H     -0.013200    4.189980    3.685850
