20

C     -0.426180    1.347320    2.369320
C      0.507020    0.160760    2.441900
O      1.050570   -0.169750    3.483120
C      0.728300   -0.592920    1.150750
H     -0.523640    1.821540    3.360390
H     -1.426600    1.027530    2.032420
H     -0.037910    2.095520    1.657950
H     -0.227280   -0.996130    0.775390
H      1.426080   -1.432220    1.309730
C      3.310580    0.757690    2.054970
C      3.738540    0.239820    0.835440
C      3.239040    0.807060   -0.333900
C      2.335940    1.864400   -0.233140
N      1.914150    2.374300    0.934190
C      2.404380    1.817160    2.052140
H      3.673420    0.347100    3.006480
H      4.451500   -0.594320    0.796840
H      3.543810    0.436560   -1.321540
H      1.924870    2.332050   -1.137530
H      2.048710    2.246570    2.998040
