21

C      4.067060    2.711910    0.202950
C      3.275730    1.651100   -0.504880
C      2.681690    0.614390    0.096130
C      1.890360   -0.446420   -0.611700
H      4.087360    2.512760    1.287630
H      3.614960    3.704020    0.035820
H      5.104640    2.730630   -0.170790
H      3.184260    1.742560   -1.595230
H      2.773150    0.522930    1.186490
H      2.342460   -1.438530   -0.444560
H      0.852780   -0.465140   -0.237950
C      0.431740    4.321710    2.194660
S      1.449670    2.865270    1.871610
S      0.092540    1.555750    1.098230
C      0.067260    2.020290   -0.646860
H      1.081980    5.083040    2.657430
H     -0.391510    4.091460    2.891690
H      0.002320    4.741210    1.269340
H     -0.291690    3.052500   -0.796200
H      1.066820    1.925880   -1.103560
H     -0.621680    1.330190   -1.162360
