21

C      3.104900    0.691670    0.388700
C      2.381820   -0.626270    0.217470
O      2.819730   -1.550110   -0.454000
N      1.187310   -0.712250    0.875980
H      4.051210    0.661640   -0.177160
H      3.335920    0.878830    1.450880
H      2.494230    1.527970    0.008840
H      0.823670    0.062170    1.436840
H      0.653260   -1.581170    0.796540
C      0.725080    3.588660    4.319630
O      1.041000    3.851900    2.965780
P      0.315770    2.858000    1.853680
O      0.295630    1.465310    2.385580
O     -1.245640    3.402520    1.980400
C     -1.488210    4.693260    1.453950
O      0.869090    3.269730    0.531850
H      1.054640    2.580600    4.622640
H      1.252400    4.332550    4.940250
H     -0.357940    3.676540    4.509240
H     -2.550730    4.934050    1.626240
H     -0.868910    5.458550    1.951370
