24

C     -0.982980    2.160460    1.210240
N      0.307030    2.769160    1.470100
C      1.305380    2.714570    0.545280
O      1.150560    2.151900   -0.534590
C      2.596940    3.392200    0.951520
H     -1.638420    2.320260    2.082870
H     -0.880630    1.075310    1.041150
H     -1.460840    2.611060    0.324110
H      0.475060    3.247490    2.358640
H      3.016590    2.930590    1.861140
H      3.329450    3.287050    0.133610
H      2.436380    4.466330    1.144080
C      2.117430   -1.235480    2.416520
S      1.483880    0.255970    1.634270
C      1.439630   -0.326750   -0.075750
S      3.031450   -0.708040   -0.841520
C      3.735030    0.948040   -0.852060
H      2.252760   -1.025690    3.490890
H      3.091670   -1.527420    1.989620
H      1.418270   -2.081740    2.308660
H      0.920220    0.459100   -0.657210
H      3.150140    1.636200   -1.485270
H      3.787180    1.366340    0.167210
H      4.758570    0.880920   -1.257600
