20

C     -0.577270    1.268690    2.474140
C      0.355930    0.082120    2.546730
O      0.899480   -0.248390    3.587940
C      0.577210   -0.671550    1.255570
H     -0.674730    1.742910    3.465220
H     -1.577690    0.948890    2.137250
H     -0.189000    2.016890    1.762770
H     -0.378370   -1.074770    0.880210
H      1.001650   -0.001510    0.489090
H      1.274990   -1.510860    1.414550
C      3.310580    0.757690    2.054970
C      3.738540    0.239820    0.835440
C      3.239040    0.807060   -0.333900
C      2.335940    1.864400   -0.233140
N      1.914150    2.374300    0.934190
C      2.404380    1.817160    2.052140
H      3.673420    0.347100    3.006480
H      4.451500   -0.594320    0.796840
H      1.924870    2.332050   -1.137530
H      2.048710    2.246570    2.998040
