24

C      1.336870    3.018720    3.238680
C      2.797800    3.169550    2.815080
C      3.144100    2.314670    1.598030
C      4.600580    2.452810    1.160400
C      4.928960    1.590600   -0.058320
H      0.670730    3.322030    2.413530
H      1.123980    1.967070    3.494260
H      1.115530    3.646290    4.118330
H      3.004470    4.230740    2.577140
H      3.456780    2.878580    3.655630
H      2.939000    1.252850    1.834510
H      2.486700    2.605010    0.756020
H      4.804100    3.515250    0.925370
H      5.256400    2.163090    2.003850
H      4.745420    0.527280    0.170310
H      4.292180    1.882240   -0.910410
H      5.985520    1.710110   -0.351590
C      1.046910    0.765370    0.538610
N      2.356090    0.636540   -0.175250
H      3.077990    1.236480    0.272560
H      2.690080   -0.348120   -0.152900
H      0.697230    1.811130    0.512020
H      1.152910    0.456530    1.592170
H      0.285040    0.127380    0.059930
