20

C     -0.793350    0.836160    3.210820
N      0.530780    0.788430    2.622100
C      1.349700   -0.280250    2.827700
O      0.999060   -1.235480    3.514200
C      2.702120   -0.194200    2.152490
H     -1.282450    1.781030    2.919930
H     -0.737800    0.793110    4.311580
H     -1.413400   -0.004520    2.856700
H      0.859510    1.565400    2.043500
H      3.268870    0.680900    2.512480
H      3.277500   -1.106010    2.385200
C      1.455400    1.815940   -1.015020
S      1.015190    3.165060    0.093060
C     -0.775230    3.042240   -0.052020
H      2.555660    1.745240   -1.047080
H      1.084520    1.996630   -2.037960
H      1.051220    0.853320   -0.659170
H     -1.107690    3.201810   -1.091550
H     -1.140980    2.058500    0.287240
H     -1.224020    3.823140    0.584670
