20

C     -0.955000    1.072100    2.736200
C     -0.021800   -0.114470    2.808780
O      0.521750   -0.444980    3.850000
C      0.199480   -0.868140    1.517630
H     -1.052450    1.546320    3.727270
H     -1.955420    0.752300    2.399300
H     -0.566730    1.820300    2.024830
H     -0.756100   -1.271360    1.142270
H      0.623920   -0.198100    0.751140
H      0.897260   -1.707450    1.676610
C      3.310580    0.757690    2.054970
C      3.738540    0.239820    0.835440
C      3.239040    0.807060   -0.333900
C      2.335940    1.864400   -0.233140
N      1.914150    2.374300    0.934190
C      2.404380    1.817160    2.052140
H      3.673420    0.347100    3.006480
H      4.451500   -0.594320    0.796840
H      3.543810    0.436560   -1.321540
H      2.048710    2.246570    2.998040
