24

C     -1.742850    3.791320    1.156500
N     -0.452830    4.400030    1.416360
C      0.545520    4.345430    0.491540
O      0.390690    3.782760   -0.588330
C      1.837080    5.023060    0.897780
H     -2.398280    3.951120    2.029130
H     -1.640490    2.706180    0.987410
H     -2.220700    4.241920    0.270370
H     -0.284800    4.878360    2.304900
H      2.256730    4.561450    1.807400
H      2.569590    4.917920    0.079870
H      1.676520    6.097190    1.090340
C      2.117430   -1.235480    2.416520
S      1.483880    0.255970    1.634270
C      1.439630   -0.326750   -0.075750
S      3.031450   -0.708040   -0.841520
C      3.735030    0.948040   -0.852060
H      2.252760   -1.025690    3.490890
H      3.091670   -1.527420    1.989620
H      1.418270   -2.081740    2.308660
H      0.834260   -1.251080   -0.143440
H      0.920220    0.459100   -0.657210
H      3.150140    1.636200   -1.485270
H      4.758570    0.880920   -1.257600
