23

O      0.841660   -0.826740    0.491800
C      1.443580   -0.501490    1.505520
N      1.034830    0.430700    2.407230
C      1.815310    0.748510    3.580800
C     -0.210850    1.139960    2.216900
H      2.421580   -0.956740    1.795260
H      2.104550    1.812900    3.581150
H      1.242400    0.539320    4.499830
H     -0.684280    0.787990    1.284920
H     -0.903630    0.955050    3.055040
H     -0.039010    2.226460    2.135650
C      3.907800    5.117110    2.233300
C      3.043010    4.638280    1.248440
C      3.357190    3.470870    0.551650
C      4.536150    2.782290    0.839710
C      5.400940    3.261110    1.824570
C      5.086760    4.428530    2.521360
H      3.660580    6.035730    2.781600
H      2.115310    5.180120    1.021770
H      2.676700    3.094090   -0.223320
H      4.783360    1.863670    0.291420
H      6.328640    2.719280    2.051240
H      5.767250    4.805310    3.296330
